Version 4
SHEET 1 1872 1728
WIRE 880 208 880 176
WIRE 1168 208 1168 176
WIRE 832 288 752 288
WIRE 1120 288 832 288
WIRE 880 384 880 304
WIRE 880 384 304 384
WIRE 1168 416 1168 304
WIRE 1168 416 544 416
WIRE 1536 448 1440 448
WIRE 304 464 304 384
WIRE 544 464 544 416
WIRE 880 512 880 384
WIRE 1168 512 1168 416
WIRE 1584 528 1584 464
WIRE 1696 528 1584 528
WIRE 1728 528 1696 528
WIRE 1824 528 1792 528
WIRE 192 544 144 544
WIRE 256 544 192 544
WIRE 720 544 592 544
WIRE 432 560 304 560
WIRE 544 560 432 560
WIRE 1120 592 928 592
WIRE 1328 592 1120 592
WIRE 1584 592 1584 528
WIRE 1168 672 1168 608
WIRE 1536 672 1168 672
WIRE 880 704 880 608
WIRE 960 704 880 704
WIRE 880 736 880 704
WIRE 1168 736 1168 672
WIRE -192 752 -224 752
WIRE -144 752 -144 528
WIRE -144 752 -192 752
WIRE -80 752 -144 752
WIRE -272 784 -272 768
WIRE -192 784 -192 752
WIRE -192 784 -272 784
WIRE -272 816 -272 784
WIRE 1120 816 928 816
WIRE 1328 816 1120 816
WIRE -32 832 -32 768
WIRE 48 832 -32 832
WIRE -32 864 -32 832
WIRE 432 864 432 560
WIRE 880 928 880 832
WIRE 1168 928 1168 832
WIRE 48 944 48 832
WIRE 48 944 16 944
WIRE 384 944 48 944
WIRE 960 1008 960 704
WIRE 960 1008 928 1008
WIRE 1120 1008 960 1008
WIRE 1616 1040 1536 1040
WIRE 1680 1040 1616 1040
WIRE 1616 1072 1616 1040
FLAG 1040 -176 0
FLAG 1040 -96 Vdd
FLAG 880 176 Vdd
FLAG 1168 176 Vdd
FLAG 880 976 0
FLAG 1168 976 0
FLAG 1168 784 0
FLAG 880 784 0
FLAG 544 512 0
FLAG 304 512 0
FLAG 976 1216 0
FLAG 976 1136 Vb3
FLAG 1328 816 Vb3
FLAG 1104 1136 Vb2
FLAG 1104 1216 0
FLAG 1328 592 Vb2
FLAG 880 1024 0
FLAG 1168 1024 0
FLAG -272 896 0
FLAG 160 1152 Vin1
FLAG 384 1152 Vin2
FLAG -16 1232 0
FLAG -16 1152 Vbin
FLAG 384 1232 Vbin
FLAG 160 1232 Vbin
FLAG 144 544 Vin2f
FLAG 1168 560 vdd
FLAG 880 560 vdd
FLAG 1584 640 0
FLAG 1584 368 vdd
FLAG 1584 416 vdd
FLAG 1584 912 0
FLAG 1584 832 Vb9
FLAG 1440 448 Vb9
FLAG 1584 688 0
FLAG 1168 256 Vdd
FLAG 880 256 Vdd
FLAG -32 960 0
FLAG 432 960 0
FLAG -272 720 vdd
FLAG -32 720 vdd
FLAG -32 912 0
FLAG 432 912 0
FLAG -272 672 vdd
FLAG -32 672 vdd
FLAG -144 528 Vb1
FLAG 752 288 Vb1
FLAG 720 544 Vin1
FLAG -64 1472 0
FLAG -64 1392 Vsin
FLAG 1824 528 Vo
FLAG 1760 1040 Vo
FLAG 1616 1152 0
FLAG 1536 1040 Vin2f
FLAG 192 624 Vbin
FLAG 1696 592 0
SYMBOL voltage 1040 -80 R180
WINDOW 0 24 96 Left 2
WINDOW 3 24 16 Left 2
WINDOW 123 0 0 Left 0
WINDOW 39 0 0 Left 0
SYMATTR InstName V1
SYMATTR Value 1.8
SYMBOL current -272 816 R0
WINDOW 123 0 0 Left 0
WINDOW 39 0 0 Left 0
SYMATTR InstName I1
SYMATTR Value 0.01m
SYMBOL nmos4 256 464 R0
SYMATTR InstName M1
SYMATTR Value myNmos
SYMATTR Value2 l=0.18u w=60u
SYMBOL nmos4 592 464 M0
SYMATTR InstName M2
SYMATTR Value myNmos
SYMATTR Value2 l=0.18u w=60u
SYMBOL nmos4 1120 736 R0
SYMATTR InstName M3
SYMATTR Value myNmos
SYMATTR Value2 l=0.18u w=10u
SYMBOL nmos4 1120 928 R0
SYMATTR InstName M4
SYMATTR Value myNmos
SYMATTR Value2 l=0.18u w=10u
SYMBOL nmos4 928 736 M0
SYMATTR InstName M5
SYMATTR Value myNmos
SYMATTR Value2 l=0.18u w=10u
SYMBOL nmos4 928 928 M0
SYMATTR InstName M6
SYMATTR Value myNmos
SYMATTR Value2 l=0.18u w=10u
SYMBOL pmos4 1120 512 R0
SYMATTR InstName M8
SYMATTR Value myPmos
SYMATTR Value2 l=0.18u w=45u
SYMBOL pmos4 928 512 M0
SYMATTR InstName M10
SYMATTR Value myPmos
SYMATTR Value2 l=0.18u w=45u
SYMBOL voltage 976 1120 R0
WINDOW 123 0 0 Left 0
WINDOW 39 0 0 Left 0
SYMATTR InstName Vb3
SYMATTR Value 1.2
SYMBOL voltage 1104 1120 R0
WINDOW 123 0 0 Left 0
WINDOW 39 0 0 Left 0
SYMATTR InstName Vb2
SYMATTR Value 1.8
SYMBOL voltage 160 1136 R0
WINDOW 123 0 0 Left 0
WINDOW 39 0 0 Left 0
SYMATTR InstName Vin1
SYMATTR Value SINE(0 1u 1k)
SYMBOL voltage 384 1136 R0
WINDOW 3 24 44 Left 2
WINDOW 123 0 0 Left 0
WINDOW 39 0 0 Left 0
SYMATTR InstName Vin2
SYMATTR Value 0
SYMBOL voltage -16 1136 R0
WINDOW 123 0 0 Left 0
WINDOW 39 0 0 Left 0
SYMATTR InstName V4
SYMATTR Value 0.9
SYMBOL nmos4 1536 592 R0
SYMATTR InstName M7
SYMATTR Value myNmos
SYMATTR Value2 l=0.18u w=200u
SYMBOL pmos4 1536 368 R0
SYMATTR InstName M9
SYMATTR Value myPmos
SYMATTR Value2 l=0.18u w=3.6u
SYMBOL voltage 1584 816 R0
WINDOW 123 0 0 Left 0
WINDOW 39 0 0 Left 0
SYMATTR InstName V2
SYMATTR Value 1.2
SYMBOL pmos4 832 208 R0
SYMATTR InstName M11
SYMATTR Value myPmos
SYMATTR Value2 l=0.18u w=1u
SYMBOL pmos4 1120 208 R0
SYMATTR InstName M12
SYMATTR Value myPmos
SYMATTR Value2 l=0.18u w=1u
SYMBOL pmos4 -224 672 M0
SYMATTR InstName M13
SYMATTR Value myPmos
SYMATTR Value2 l=0.18u w=1u
SYMBOL pmos4 -80 672 R0
SYMATTR InstName M14
SYMATTR Value myPmos
SYMATTR Value2 l=0.18u w=1u
SYMBOL nmos4 16 864 M0
SYMATTR InstName M15
SYMATTR Value myNmos
SYMATTR Value2 l=0.18u w=10u
SYMBOL nmos4 384 864 R0
SYMATTR InstName M16
SYMATTR Value myNmos
SYMATTR Value2 l=0.18u w=10u
SYMBOL cap 1792 512 R90
WINDOW 0 0 32 VBottom 2
WINDOW 3 32 32 VTop 2
SYMATTR InstName C1
SYMATTR Value 1
SYMBOL voltage -64 1376 R0
WINDOW 123 0 0 Left 0
WINDOW 39 0 0 Left 0
SYMATTR InstName V3
SYMATTR Value SINE(0.90000047 10u 1k 0 0 -8)
SYMBOL res 1776 1024 R90
WINDOW 0 0 56 VBottom 2
WINDOW 3 32 56 VTop 2
SYMATTR InstName R1
SYMATTR Value 9k
SYMBOL res 1632 1168 R180
WINDOW 0 36 76 Left 2
WINDOW 3 36 40 Left 2
SYMATTR InstName R2
SYMATTR Value 1k
SYMBOL ind 176 528 R0
SYMATTR InstName L1
SYMATTR Value 1
SYMBOL cap 1680 528 R0
SYMATTR InstName C2
SYMATTR Value 2p
TEXT 496 1112 Left 2 !.tran 0 2m 0 10n
TEXT -72 56 Left 2 !.model myNmos nmos (kp=250u vt0=0.6 lambda=0.2)
TEXT -72 104 Left 2 !.model myPmos pmos (kp=80u vt0=0.6 lambda=0.2)
TEXT -72 1064 Left 2 !;dc V4 -1.8 1.8 1u
